
     RDKit          3D

 74 77  0  0  0  0  0  0  0  0999 V2000
    6.8364   -1.0843    1.4084 C   0  0  0  0  0  0  0  0  0  0  0  0
    6.3213   -0.2725    0.2667 N   0  0  0  0  0  4  0  0  0  0  0  0
    6.4613    1.2019    0.3847 C   0  0  0  0  0  0  0  0  0  0  0  0
    8.3718   -1.1810    1.4640 C   0  0  0  0  0  0  0  0  0  0  0  0
    8.9822   -1.7572    0.1880 C   0  0  0  0  0  0  0  0  0  0  0  0
    8.7004   -2.0321    2.5635 O   0  0  0  0  0  0  0  0  0  0  0  0
    5.7924    1.9151   -0.7983 C   0  0  0  0  0  0  0  0  0  0  0  0
    4.3851    2.4927   -0.5504 C   0  0  0  0  0  0  0  0  0  0  0  0
    3.3038    1.5374   -0.0426 C   0  0  0  0  0  0  0  0  0  0  0  0
    3.1823    0.2966   -0.8966 C   0  0  0  0  0  0  0  0  0  0  0  0
    3.9352   -0.6601   -0.6609 O   0  0  0  0  0  0  0  0  0  0  0  0
    2.2450    0.2997   -2.0837 C   0  0  0  0  0  0  0  0  0  0  0  0
    0.7615    0.4084   -1.7358 C   0  0  0  0  0  0  0  0  0  0  0  0
    0.2958   -0.6481   -0.7247 C   0  0  0  0  0  0  0  0  0  0  0  0
   -1.2049   -0.8636   -0.7272 C   0  0  0  0  0  0  0  0  0  0  0  0
   -1.7071   -2.0787   -0.9869 C   0  0  0  0  0  0  0  0  0  0  0  0
   -2.0803    0.3176   -0.3801 C   0  0  0  0  0  0  0  0  0  0  0  0
   -3.1509   -2.3789   -1.0238 C   0  0  0  0  0  0  0  0  0  0  0  0
   -3.6145    0.1181   -0.4922 C   0  0  0  0  0  0  0  0  0  0  0  0
   -3.5256   -3.5441   -1.1185 O   0  0  0  0  0  0  0  0  0  0  0  0
   -4.0756   -1.2235   -0.9895 C   0  0  0  0  0  0  0  0  0  0  0  0
   -4.4080    0.5018    0.7964 C   0  0  0  0  0  0  0  0  0  0  0  0
   -5.3260   -1.4258   -1.4516 C   0  0  0  0  0  0  0  0  0  0  0  0
   -3.9090   -0.2465    2.0584 C   0  0  0  0  0  0  0  0  0  0  0  0
   -5.9360    0.3790    0.6624 C   0  0  0  0  0  0  0  0  0  0  0  0
   -6.3317   -0.3770   -1.5802 C   0  0  0  0  0  0  0  0  0  0  0  0
   -4.7422    0.1207    3.2902 C   0  0  0  0  0  0  0  0  0  0  0  0
   -6.5385    0.5915   -0.5890 N   0  0  0  0  0  0  0  0  0  0  0  0
   -6.7076    0.0435    1.7162 C   0  0  0  0  0  0  0  0  0  0  0  0
   -7.0570   -0.3547   -2.7070 C   0  0  0  0  0  0  0  0  0  0  0  0
   -6.2000   -0.2604    3.0907 C   0  0  0  0  0  0  0  0  0  0  0  0
   -7.4969    1.6085   -0.7399 C   0  0  0  0  0  0  0  0  0  0  0  0
   -8.0490    0.7025   -2.9258 C   0  0  0  0  0  0  0  0  0  0  0  0
   -8.2531    1.5525   -1.8847 N   0  0  0  0  0  0  0  0  0  0  0  0
   -7.6658    2.5345    0.0555 O   0  0  0  0  0  0  0  0  0  0  0  0
   -8.6376    0.7856   -4.0003 O   0  0  0  0  0  0  0  0  0  0  0  0
    6.4032   -2.0863    1.2931 H   0  0  0  0  0  0  0  0  0  0  0  0
    6.4283   -0.6617    2.3364 H   0  0  0  0  0  0  0  0  0  0  0  0
    5.3203   -0.5277    0.1472 H   0  0  0  0  0  0  0  0  0  0  0  0
    6.7174   -0.6148   -0.6163 H   0  0  0  0  0  0  0  0  0  0  0  0
    6.0512    1.5196    1.3460 H   0  0  0  0  0  0  0  0  0  0  0  0
    7.5361    1.3989    0.3685 H   0  0  0  0  0  0  0  0  0  0  0  0
    8.7999   -0.1956    1.6786 H   0  0  0  0  0  0  0  0  0  0  0  0
    8.8181   -1.1148   -0.6772 H   0  0  0  0  0  0  0  0  0  0  0  0
   10.0644   -1.8961    0.3091 H   0  0  0  0  0  0  0  0  0  0  0  0
    8.5611   -2.7415   -0.0199 H   0  0  0  0  0  0  0  0  0  0  0  0
    9.5989   -2.4012    2.4348 H   0  0  0  0  0  0  0  0  0  0  0  0
    5.7845    1.2678   -1.6839 H   0  0  0  0  0  0  0  0  0  0  0  0
    6.4239    2.7768   -1.0624 H   0  0  0  0  0  0  0  0  0  0  0  0
    4.4655    3.3237    0.1639 H   0  0  0  0  0  0  0  0  0  0  0  0
    4.0444    2.9427   -1.4962 H   0  0  0  0  0  0  0  0  0  0  0  0
    2.3397    2.0536    0.0127 H   0  0  0  0  0  0  0  0  0  0  0  0
    3.5349    1.2067    0.9797 H   0  0  0  0  0  0  0  0  0  0  0  0
    2.5454    1.1165   -2.7505 H   0  0  0  0  0  0  0  0  0  0  0  0
    2.4154   -0.6298   -2.6395 H   0  0  0  0  0  0  0  0  0  0  0  0
    0.5401    1.4061   -1.3420 H   0  0  0  0  0  0  0  0  0  0  0  0
    0.1980    0.3115   -2.6772 H   0  0  0  0  0  0  0  0  0  0  0  0
    0.8110   -1.5874   -0.9473 H   0  0  0  0  0  0  0  0  0  0  0  0
    0.6092   -0.3586    0.2886 H   0  0  0  0  0  0  0  0  0  0  0  0
   -1.0717   -2.9334   -1.2026 H   0  0  0  0  0  0  0  0  0  0  0  0
   -1.8000    0.6664    0.6272 H   0  0  0  0  0  0  0  0  0  0  0  0
   -1.8091    1.1601   -1.0401 H   0  0  0  0  0  0  0  0  0  0  0  0
   -3.9124    0.8547   -1.2578 H   0  0  0  0  0  0  0  0  0  0  0  0
   -4.2151    1.5724    0.9661 H   0  0  0  0  0  0  0  0  0  0  0  0
   -5.6115   -2.4078   -1.8280 H   0  0  0  0  0  0  0  0  0  0  0  0
   -3.9427   -1.3293    1.9092 H   0  0  0  0  0  0  0  0  0  0  0  0
   -2.8617   -0.0017    2.2743 H   0  0  0  0  0  0  0  0  0  0  0  0
   -4.6495    1.2025    3.4948 H   0  0  0  0  0  0  0  0  0  0  0  0
   -4.3493   -0.3914    4.1789 H   0  0  0  0  0  0  0  0  0  0  0  0
   -7.7848   -0.0533    1.5962 H   0  0  0  0  0  0  0  0  0  0  0  0
   -6.9350   -1.0769   -3.5069 H   0  0  0  0  0  0  0  0  0  0  0  0
   -6.3055   -1.3362    3.2511 H   0  0  0  0  0  0  0  0  0  0  0  0
   -6.8158    0.2314    3.8475 H   0  0  0  0  0  0  0  0  0  0  0  0
   -8.9039    2.3151   -2.0190 H   0  0  0  0  0  0  0  0  0  0  0  0
  1  2  1  0
  2  3  1  0
  4  1  1  0
  4  5  1  0
  4  6  1  0
  3  7  1  0
  7  8  1  0
  8  9  1  0
  9 10  1  0
 10 11  2  0
 10 12  1  0
 12 13  1  0
 13 14  1  0
 14 15  1  0
 15 16  2  0
 17 15  1  0
 16 18  1  0
 19 17  1  0
 18 20  2  0
 18 21  1  0
 22 19  1  0
 19 21  1  0
 21 23  2  0
 24 22  1  0
 22 25  1  0
 23 26  1  0
 27 24  1  0
 28 25  1  0
 25 29  2  0
 26 30  2  0
 28 26  1  0
 31 27  1  0
 32 28  1  0
 29 31  1  0
 30 33  1  0
 34 32  1  0
 32 35  2  0
 33 36  2  0
 33 34  1  0
  1 37  1  0
  1 38  1  0
  2 39  1  0
  2 40  1  0
  3 41  1  0
  3 42  1  0
  4 43  1  0
  5 44  1  0
  5 45  1  0
  5 46  1  0
  6 47  1  0
  7 48  1  0
  7 49  1  0
  8 50  1  0
  8 51  1  0
  9 52  1  0
  9 53  1  0
 12 54  1  0
 12 55  1  0
 13 56  1  0
 13 57  1  0
 14 58  1  0
 14 59  1  0
 16 60  1  0
 17 61  1  0
 17 62  1  0
 19 63  1  0
 22 64  1  0
 23 65  1  0
 24 66  1  0
 24 67  1  0
 27 68  1  0
 27 69  1  0
 29 70  1  0
 30 71  1  0
 31 72  1  0
 31 73  1  0
 34 74  1  0
M  CHG  1   2   1
M  END
>  <ScrubInfo>  (1) 
{"isomerGroup": 0, "isomerId": 0, "confId": 0, "nr_conformers:": 1, "nr_isomers:": 1}

$$$$
